LAMMPS (13 Jan 2016)
include /users/knc6/inelast.mod
# Compute elastic constant tensor for a crystal
#
# Written by Aidan Thompson (Sandia, athomps@sandia.gov)
#
#  This script uses the following three include files.
#
#   init.mod      (must be modified for different crystal structures)
# 	       	  Define units, deformation parameters and initial
#		  configuration of the atoms and simulation cell.
#
#
#   potential.mod    (must be modified for different pair styles)
# 		     Define pair style and other attributes
#		     not stored in restart file
#
#
#   displace.mod    (displace.mod should not need to be modified)
# 		    Perform positive and negative box displacements
# 		    It uses the resultant changes
#		    in stress to compute one
# 		    row of the elastic stiffness tensor
#
#		    Inputs variables:
#		    	   dir = the Voigt deformation component
#		    		    (1,2,3,4,5,6)
#		    Global constants:
#       	    	   up = the deformation magnitude (strain units)
#       		   cfac = conversion from LAMMPS pressure units to
#               	   output units for elastic constants
#
#
#  To run this on a different system, it should only be necessary to
#  modify the files init.mod and potential.mod. In order to calculate
#  the elastic constants correctly, care must be taken to specify
#  the correct units in init.mod (units, cfac and cunits). It is also
#  important to verify that the minimization of energy w.r.t atom
#  positions in the deformed cell is fully converged.
#  One indication of this is that the elastic constants are insensitive
#  the final max and two-norm forces reported in the log file. If you know
#  that minimization is not required, you can set maxiter = 0.0 in
#  init.mod.
#
#  There are two alternate versions of displace.mod provided.
#  They are displace_restart.mod and displace_reverse.mod.
#  The former resets the box using a restart file while
#  the latter reverses the deformation. Copy whichever
#  one you like best to displace.mod.
#

include init.mod
variable dump_file string "None"
variable up  equal 1.0e-6
variable cfac  equal 1.0e-4
variable cunits  string GPa
variable etol  equal 0
variable ftol  equal 1.0e-10
variable maxiter equal 1000
variable maxeval equal 10000
variable dmax equal 1.0e-2
variable data_file string "data"
units metal
atom_style charge
boundary p p p
atom_modify sort 0 0.0

read_data data
  triclinic box = (0 0 0) to (20.25 29.205 47.1773) with tilt (0 0 0)
  reading atoms ...
  720 atoms

### interactions
mass 1 26.98154
include potential.mod
pair_style eam/alloy
pair_coeff * * /users/knc6/Software/jarvis/jarvis/lammps/examples/Al03.eam.alloy  Al
neighbor 1.0 nsq
neigh_modify once no every 1 delay 0 check yes
min_style  cg
min_modify           dmax 0.01 line quadratic
thermo          1
thermo_style custom step temp press cpu pxx pyy pzz pxy pxz pyz ke pe etotal vol lx ly lz atoms
thermo_modify norm no
#fix 3 all nph aniso 0.0 0.0 1.0
#fix langevin all langevin 0.0 0.0 1.0 12233

#fix 3 all box/relax tri 0.0 vmax 0.001
fix            3 all box/relax aniso 0.0 vmax 0.001
#fix 3 all box/relax  aniso 0.0
#dump            2a all cfg 100 *.cfg mass type xs ys zs  vx vy vz fx fy fz
#dump_modify     2a element  Mo S

#fix 1a all qeq/comb 1 0.0001 file fq.out
#fix             2 all qeq/reax 1 0.0 10.0 1e-6 /scratch/lfs/kamal/JARVIS/All2/ReaxFF/param.qeq
minimize 0 1e-10 1000 10000
  1 neighbor list requests
  update every 1 steps, delay 0 steps, check yes
Step Temp Press CPU Pxx Pyy Pzz Pxy Pxz Pyz KinEng PotEng TotEng Volume Lx Ly Lz Atoms
0            0   -12236.655            0   -14106.887   -12786.129   -9816.9503 1.8051593e-07 9.0748066e-07   -26.515193            0   -2352.2504   -2352.2504    27900.652        20.25    29.204965    47.177251      720
Averages over the last 501 of 1001 rows, steps 500 to 1000:
Temp Press Pxx Pyy Pzz Pxy Pxz Pyz KinEng PotEng TotEng Volume Lx Ly Lz Atoms
0 -6.301e-05 -0.000107462 1.28371e-05 -9.44053e-05 -1.97402e-11 -6.958e-10 0.0304705 0 -2359.54 -2359.54 27141.3 19.9243 28.8045 47.292 720
Loop time of 4.78833 on 1 procs for 1000 steps with 720 atoms

Minimization stats:
  Stopping criterion = max iterations
  Energy initial, next-to-last, final =
  Force two-norm initial, final = 373.067 5.0675e-07
  Force max component initial, final = 245.66 3.74315e-07
  Final line search alpha, max atom move = 1 3.74315e-07
  Iterations, force evaluations = 1000 1898

variable tmp equal pxx
variable pxx0 equal -2.17407034527252e-05
variable tmp equal pyy
variable pyy0 equal -1.56465282166707e-05
variable tmp equal pzz
variable pzz0 equal -1.24475594005366e-05
variable tmp equal pyz
variable pyz0 equal 2.24072153234221e-05
variable tmp equal pxz
variable pxz0 equal -2.23146872272735e-11
variable tmp equal pxy
variable pxy0 equal -7.23687204485594e-12

variable tmp equal lx
variable lx0 equal 19.924267092592
variable tmp equal ly
variable ly0 equal 28.8045463775457
variable tmp equal lz
variable lz0 equal 47.2919869156831

# These formulas define the derivatives w.r.t. strain components
# Constants uses $, variables use v_
variable d1 equal -(v_pxx1--2.17407034527252e-05)/(v_delta/v_len0)*0.0001
variable d2 equal -(v_pyy1--1.56465282166707e-05)/(v_delta/v_len0)*0.0001
variable d3 equal -(v_pzz1--1.24475594005366e-05)/(v_delta/v_len0)*0.0001
variable d4 equal -(v_pyz1-2.24072153234221e-05)/(v_delta/v_len0)*0.0001
variable d5 equal -(v_pxz1--2.23146872272735e-11)/(v_delta/v_len0)*0.0001
variable d6 equal -(v_pxy1--7.23687204485594e-12)/(v_delta/v_len0)*0.0001

# Write restart
unfix 3
minimize 0 1e-10 1000 10000
Step Temp Press CPU Pxx Pyy Pzz Pxy Pxz Pyz KinEng PotEng TotEng Volume Lx Ly Lz Atoms
1000            0 -1.6611584e-05            0 -2.1740666e-05 -1.5646543e-05 -1.2447541e-05 -2.5369143e-12 -2.1188672e-11 2.2407219e-05            0   -2359.5389   -2359.5389    27141.319    19.924267    28.804546    47.291987      720
Loop time of 0.111093 on 1 procs for 22 steps with 720 atoms

Minimization stats:
  Stopping criterion = force tolerance
  Energy initial, next-to-last, final =
  Force two-norm initial, final = 1.46178e-08 9.03402e-11
  Force max component initial, final = 1.07014e-09 5.9105e-12
  Final line search alpha, max atom move = 1 5.9105e-12
  Iterations, force evaluations = 22 44

#fix 1a all qeq/comb 1 0.0001 file fq.out
write_restart restart.equil
write_data data0

# uxx Perturbation

variable dir equal 1
include /users/knc6/displace.mod
# NOTE: This script should not need to be
# modified. See in.elastic for more info.
#
# Find which reference length to use

variable len0 equal 19.924267092592

# Reset box and simulation parameters

clear
box tilt large
read_restart restart.equil
  triclinic box = (0.162866 0.200209 -0.0573678) to (20.0871 29.0048 47.2346) with tilt (0 0 0)
  720 atoms
include potential.mod
pair_style eam/alloy
pair_coeff * * /users/knc6/Software/jarvis/jarvis/lammps/examples/Al03.eam.alloy  Al
neighbor 1.0 nsq
neigh_modify once no every 1 delay 0 check yes
min_style  cg
min_modify           dmax 0.01 line quadratic
thermo          1
thermo_style custom step temp press cpu pxx pyy pzz pxy pxz pyz ke pe etotal vol lx ly lz atoms
thermo_modify norm no
# Negative deformation

variable delta equal -1e-06*19.924267092592
change_box all x delta 0 -1.9924267092592e-05 remap units box
  triclinic box = (0.162866 0.200209 -0.0573678) to (20.0871 29.0048 47.2346) with tilt (0 0 0)

# Relax atoms positions

minimize 0 1e-10 1000 10000
  1 neighbor list requests
  update every 1 steps, delay 0 steps, check yes
Step Temp Press CPU Pxx Pyy Pzz Pxy Pxz Pyz KinEng PotEng TotEng Volume Lx Ly Lz Atoms
1022            0   0.36836205            0   0.55175181   0.28047432      0.27286 3.4867215e-10 1.1584004e-09 0.0063104858            0   -2359.5389   -2359.5389    27141.292    19.924247    28.804546    47.291987      720
Loop time of 0.208184 on 1 procs for 41 steps with 720 atoms

Minimization stats:
  Stopping criterion = force tolerance
  Energy initial, next-to-last, final =
  Force two-norm initial, final = 5.75921e-05 6.4967e-11
  Force max component initial, final = 5.70074e-06 5.81749e-12
  Final line search alpha, max atom move = 1 5.81749e-12
  Iterations, force evaluations = 41 82

# Obtain new stress tensor

variable tmp equal pxx
variable pxx1 equal 0.373542699640844
variable tmp equal pyy
variable pyy1 equal 0.138255123222186
variable tmp equal pzz
variable pzz1 equal 3.83274613318078e-09
variable tmp equal pxy
variable pxy1 equal -5.78000048362501e-12
variable tmp equal pxz
variable pxz1 equal -1.0025603560145e-11
variable tmp equal pyz
variable pyz1 equal -3.78681989023379e-09

# Compute elastic constant from pressure tensor

variable C1neg equal 37.3564440344297
variable C2neg equal 13.8270769750403
variable C3neg equal 0.00124513921466698
variable C4neg equal -0.00224110021433123
variable C5neg equal 1.22890836671285e-09
variable C6neg equal 1.45687156123093e-10

# Reset box and simulation parameters

clear
box tilt large
read_restart restart.equil
  triclinic box = (0.162866 0.200209 -0.0573678) to (20.0871 29.0048 47.2346) with tilt (0 0 0)
  720 atoms
include potential.mod
pair_style eam/alloy
pair_coeff * * /users/knc6/Software/jarvis/jarvis/lammps/examples/Al03.eam.alloy  Al
neighbor 1.0 nsq
neigh_modify once no every 1 delay 0 check yes
min_style  cg
min_modify           dmax 0.01 line quadratic
thermo          1
thermo_style custom step temp press cpu pxx pyy pzz pxy pxz pyz ke pe etotal vol lx ly lz atoms
thermo_modify norm no

# Positive deformation

variable delta equal 1e-06*19.924267092592
change_box all x delta 0 1.9924267092592e-05 remap units box
  triclinic box = (0.162866 0.200209 -0.0573678) to (20.0872 29.0048 47.2346) with tilt (0 0 0)

# Relax atoms positions

minimize 0 1e-10 1000 10000
  1 neighbor list requests
  update every 1 steps, delay 0 steps, check yes
Step Temp Press CPU Pxx Pyy Pzz Pxy Pxz Pyz KinEng PotEng TotEng Volume Lx Ly Lz Atoms
1022            0  -0.36837745            0  -0.55178017  -0.28049448  -0.27285769 3.4301639e-10 1.1684265e-09 -0.0063104837            0   -2359.5389   -2359.5389    27141.347    19.924287    28.804546    47.291987      720
Loop time of 0.205189 on 1 procs for 41 steps with 720 atoms

Minimization stats:
  Stopping criterion = force tolerance
  Energy initial, next-to-last, final =
  Force two-norm initial, final = 5.75918e-05 6.49884e-11
  Force max component initial, final = 5.70072e-06 6.2542e-12
  Final line search alpha, max atom move = 1 6.2542e-12
  Iterations, force evaluations = 41 82

# Obtain new stress tensor

variable tmp equal pe
variable e1 equal -2359.53886067023
variable tmp equal press
variable p1 equal -0.170616827062649
variable tmp equal pxx
variable pxx1 equal -0.373573479224802
variable tmp equal pyy
variable pyy1 equal -0.138277005014231
variable tmp equal pzz
variable pzz1 equal 3.05108702533868e-09
variable tmp equal pxy
variable pxy1 equal 1.00231258565207e-12
variable tmp equal pxz
variable pxz1 equal -1.6859905328167e-11
variable tmp equal pyz
variable pyz1 equal 4.09699897964039e-09

# Compute elastic constant from pressure tensor

variable C1pos equal 37.3551738521349
variable C2pos equal 13.8261358486014
variable C3pos equal -0.00124506104875619
variable C4pos equal 0.00224031183244425
variable C5pos equal -5.4547818991065e-10
variable C6pos equal -8.23918463050801e-10

# Combine positive and negative

variable C11 equal 0.5*(37.3564440344297+37.3551738521349)
variable C21 equal 0.5*(13.8270769750403+13.8261358486014)
variable C31 equal 0.5*(0.00124513921466698+-0.00124506104875619)
variable C41 equal 0.5*(-0.00224110021433123+0.00224031183244425)
variable C51 equal 0.5*(1.22890836671285e-09+-5.4547818991065e-10)
variable C61 equal 0.5*(1.45687156123093e-10+-8.23918463050801e-10)

# Delete dir to make sure it is not reused

variable dir delete

# uyy Perturbation

variable dir equal 2
include /users/knc6/displace.mod
# NOTE: This script should not need to be
# modified. See in.elastic for more info.
#
# Find which reference length to use

variable len0 equal 28.8045463775457

# Reset box and simulation parameters

clear
box tilt large
read_restart restart.equil
  triclinic box = (0.162866 0.200209 -0.0573678) to (20.0871 29.0048 47.2346) with tilt (0 0 0)
  720 atoms
include potential.mod
pair_style eam/alloy
pair_coeff * * /users/knc6/Software/jarvis/jarvis/lammps/examples/Al03.eam.alloy  Al
neighbor 1.0 nsq
neigh_modify once no every 1 delay 0 check yes
min_style  cg
min_modify           dmax 0.01 line quadratic
thermo          1
thermo_style custom step temp press cpu pxx pyy pzz pxy pxz pyz ke pe etotal vol lx ly lz atoms
thermo_modify norm no
# Negative deformation

variable delta equal -1e-06*28.8045463775457
change_box all y delta 0 -2.88045463775457e-05 remap units box
  triclinic box = (0.162866 0.200209 -0.0573678) to (20.0871 29.0047 47.2346) with tilt (0 0 0)

# Relax atoms positions

minimize 0 1e-10 1000 10000
  1 neighbor list requests
  update every 1 steps, delay 0 steps, check yes
Step Temp Press CPU Pxx Pyy Pzz Pxy Pxz Pyz KinEng PotEng TotEng Volume Lx Ly Lz Atoms
1022            0   0.36213502            0   0.28046927   0.56822448    0.2377113 3.5179665e-10 1.1709308e-09 -0.0098130696            0   -2359.5389   -2359.5389    27141.292    19.924267    28.804518    47.291987      720
Loop time of 0.210056 on 1 procs for 42 steps with 720 atoms

Minimization stats:
  Stopping criterion = force tolerance
  Energy initial, next-to-last, final =
  Force two-norm initial, final = 4.45871e-05 4.51269e-11
  Force max component initial, final = 4.33354e-06 2.89017e-12
  Final line search alpha, max atom move = 1 2.89017e-12
  Iterations, force evaluations = 42 84

# Obtain new stress tensor

variable tmp equal pxx
variable pxx1 equal 0.138250204655016
variable tmp equal pyy
variable pyy1 equal 0.428026261252932
variable tmp equal pzz
variable pzz1 equal -3.56528747569458e-09
variable tmp equal pxy
variable pxy1 equal 8.7777280393907e-12
variable tmp equal pxz
variable pxz1 equal 6.97565078563772e-12
variable tmp equal pyz
variable pyz1 equal 2.55942894351297e-10

# Compute elastic constant from pressure tensor

variable C1neg equal 13.8271945358469
variable C2neg equal 42.8041907781149
variable C3neg equal 0.00124439941130609
variable C4neg equal -0.00224069593805278
variable C5neg equal 2.92903380129112e-09
variable C6neg equal 1.60146000842466e-09

# Reset box and simulation parameters

clear
box tilt large
read_restart restart.equil
  triclinic box = (0.162866 0.200209 -0.0573678) to (20.0871 29.0048 47.2346) with tilt (0 0 0)
  720 atoms
include potential.mod
pair_style eam/alloy
pair_coeff * * /users/knc6/Software/jarvis/jarvis/lammps/examples/Al03.eam.alloy  Al
neighbor 1.0 nsq
neigh_modify once no every 1 delay 0 check yes
min_style  cg
min_modify           dmax 0.01 line quadratic
thermo          1
thermo_style custom step temp press cpu pxx pyy pzz pxy pxz pyz ke pe etotal vol lx ly lz atoms
thermo_modify norm no

# Positive deformation

variable delta equal 1e-06*28.8045463775457
change_box all y delta 0 2.88045463775457e-05 remap units box
  triclinic box = (0.162866 0.200209 -0.0573678) to (20.0871 29.0048 47.2346) with tilt (0 0 0)

# Relax atoms positions

minimize 0 1e-10 1000 10000
  1 neighbor list requests
  update every 1 steps, delay 0 steps, check yes
Step Temp Press CPU Pxx Pyy Pzz Pxy Pxz Pyz KinEng PotEng TotEng Volume Lx Ly Lz Atoms
1022            0  -0.36215008            0  -0.28049953  -0.56824122  -0.23770948 3.3887689e-10 1.1765413e-09  0.009812733            0   -2359.5389   -2359.5389    27141.347    19.924267    28.804575    47.291987      720
Loop time of 0.210273 on 1 procs for 42 steps with 720 atoms

Minimization stats:
  Stopping criterion = force tolerance
  Energy initial, next-to-last, final =
  Force two-norm initial, final = 4.4587e-05 4.51305e-11
  Force max component initial, final = 4.33353e-06 3.06622e-12
  Final line search alpha, max atom move = 1 3.06622e-12
  Iterations, force evaluations = 42 84

# Obtain new stress tensor

variable tmp equal pe
variable e1 equal -2359.53886066967
variable tmp equal press
variable p1 equal -0.188775474302479
variable tmp equal pxx
variable pxx1 equal -0.138281895147805
variable tmp equal pyy
variable pyy1 equal -0.428044533894017
variable tmp equal pzz
variable pzz1 equal 6.13438568195471e-09
variable tmp equal pxy
variable pxy1 equal -2.51090157337441e-13
variable tmp equal pxz
variable pxz1 equal -5.24053421366267e-12
variable tmp equal pyz
variable pyz1 equal -4.4493585488934e-10

# Compute elastic constant from pressure tensor

variable C1pos equal 13.8260154444352
variable C2pos equal 42.80288873658
variable C3pos equal -0.00124536937862186
variable C4pos equal 0.0022407660259277
variable C5pos equal -1.70741530136108e-09
variable C6pos equal -6.9857818875185e-10

# Combine positive and negative

variable C12 equal 0.5*(13.8271945358469+13.8260154444352)
variable C22 equal 0.5*(42.8041907781149+42.80288873658)
variable C32 equal 0.5*(0.00124439941130609+-0.00124536937862186)
variable C42 equal 0.5*(-0.00224069593805278+0.0022407660259277)
variable C52 equal 0.5*(2.92903380129112e-09+-1.70741530136108e-09)
variable C62 equal 0.5*(1.60146000842466e-09+-6.9857818875185e-10)

# Delete dir to make sure it is not reused

variable dir delete

# uzz Perturbation

variable dir equal 3
include /users/knc6/displace.mod
# NOTE: This script should not need to be
# modified. See in.elastic for more info.
#
# Find which reference length to use

variable len0 equal 47.2919869156831

# Reset box and simulation parameters

clear
box tilt large
read_restart restart.equil
  triclinic box = (0.162866 0.200209 -0.0573678) to (20.0871 29.0048 47.2346) with tilt (0 0 0)
  720 atoms
include potential.mod
pair_style eam/alloy
pair_coeff * * /users/knc6/Software/jarvis/jarvis/lammps/examples/Al03.eam.alloy  Al
neighbor 1.0 nsq
neigh_modify once no every 1 delay 0 check yes
min_style  cg
min_modify           dmax 0.01 line quadratic
thermo          1
thermo_style custom step temp press cpu pxx pyy pzz pxy pxz pyz ke pe etotal vol lx ly lz atoms
thermo_modify norm no
# Negative deformation

variable delta equal -1e-06*47.2919869156831
change_box all z delta 0 -4.72919869156831e-05 remap units box
  triclinic box = (0.162866 0.200209 -0.0573678) to (20.0871 29.0048 47.2346) with tilt (0 0 0)

# Relax atoms positions

minimize 0 1e-10 1000 10000
  1 neighbor list requests
  update every 1 steps, delay 0 steps, check yes
Step Temp Press CPU Pxx Pyy Pzz Pxy Pxz Pyz KinEng PotEng TotEng Volume Lx Ly Lz Atoms
1022            0   0.32490026            0   0.27284356   0.23769995   0.46415726 3.3692926e-10 1.1685792e-09 0.0083623421            0   -2359.5389   -2359.5389    27141.292    19.924267    28.804546     47.29194      720
Loop time of 0.20226 on 1 procs for 40 steps with 720 atoms

Minimization stats:
  Stopping criterion = force tolerance
  Energy initial, next-to-last, final =
  Force two-norm initial, final = 8.20018e-05 9.67091e-11
  Force max component initial, final = 7.22465e-06 6.81865e-12
  Final line search alpha, max atom move = 1 6.81865e-12
  Iterations, force evaluations = 40 80

# Obtain new stress tensor

variable tmp equal pxx
variable pxx1 equal -1.6083743801662e-05
variable tmp equal pyy
variable pyy1 equal -1.11643756687851e-05
variable tmp equal pzz
variable pzz1 equal 1.17588221701944e-08
variable tmp equal pxy
variable pxy1 equal 1.39322547267932e-11
variable tmp equal pxz
variable pxz1 equal 2.48788653798041e-11
variable tmp equal pyz
variable pyz1 equal -1.13593885417052e-09

# Compute elastic constant from pressure tensor

variable C1neg equal 0.00056569596510632
variable C2neg equal 0.00044821525478856
variable C3neg equal 0.00124593182227068
variable C4neg equal -0.00224083512622763
variable C5neg equal 4.71935526070776e-09
variable C6neg equal 2.11691267716491e-09

# Reset box and simulation parameters

clear
box tilt large
read_restart restart.equil
  triclinic box = (0.162866 0.200209 -0.0573678) to (20.0871 29.0048 47.2346) with tilt (0 0 0)
  720 atoms
include potential.mod
pair_style eam/alloy
pair_coeff * * /users/knc6/Software/jarvis/jarvis/lammps/examples/Al03.eam.alloy  Al
neighbor 1.0 nsq
neigh_modify once no every 1 delay 0 check yes
min_style  cg
min_modify           dmax 0.01 line quadratic
thermo          1
thermo_style custom step temp press cpu pxx pyy pzz pxy pxz pyz ke pe etotal vol lx ly lz atoms
thermo_modify norm no

# Positive deformation

variable delta equal 1e-06*47.2919869156831
change_box all z delta 0 4.72919869156831e-05 remap units box
  triclinic box = (0.162866 0.200209 -0.0573678) to (20.0871 29.0048 47.2347) with tilt (0 0 0)

# Relax atoms positions

minimize 0 1e-10 1000 10000
  1 neighbor list requests
  update every 1 steps, delay 0 steps, check yes
Step Temp Press CPU Pxx Pyy Pzz Pxy Pxz Pyz KinEng PotEng TotEng Volume Lx Ly Lz Atoms
1022            0  -0.32491572            0  -0.27287413  -0.23772084  -0.46415218 3.4414732e-10 1.1714908e-09 -0.0083618636            0   -2359.5389   -2359.5389    27141.347    19.924267    28.804546    47.292034      720
Loop time of 0.202393 on 1 procs for 40 steps with 720 atoms

Minimization stats:
  Stopping criterion = force tolerance
  Energy initial, next-to-last, final =
  Force two-norm initial, final = 8.20013e-05 9.66877e-11
  Force max component initial, final = 7.22461e-06 6.34588e-12
  Final line search alpha, max atom move = 1 6.34588e-12
  Iterations, force evaluations = 40 80

# Obtain new stress tensor

variable tmp equal pe
variable e1 equal -2359.53886067349
variable tmp equal press
variable p1 equal -9.07045657379404e-06
variable tmp equal pxx
variable pxx1 equal -1.60813784383128e-05
variable tmp equal pyy
variable pyy1 equal -1.11423725886999e-05
variable tmp equal pzz
variable pzz1 equal 1.23813056305754e-08
variable tmp equal pxy
variable pxy1 equal -1.27265435374784e-12
variable tmp equal pxz
variable pxz1 equal 2.8863489440359e-11
variable tmp equal pyz
variable pyz1 equal 9.59857254211953e-10

# Compute elastic constant from pressure tensor

variable C1pos equal -0.00056593250144124
variable C2pos equal -0.00045041556279708
variable C3pos equal -0.00124599407061672
variable C4pos equal 0.00224062554661679
variable C5pos equal -5.11781766676325e-09
variable C6pos equal -5.9642176911081e-10

# Combine positive and negative

variable C13 equal 0.5*(0.00056569596510632+-0.00056593250144124)
variable C23 equal 0.5*(0.00044821525478856+-0.00045041556279708)
variable C33 equal 0.5*(0.00124593182227068+-0.00124599407061672)
variable C43 equal 0.5*(-0.00224083512622763+0.00224062554661679)
variable C53 equal 0.5*(4.71935526070776e-09+-5.11781766676325e-09)
variable C63 equal 0.5*(2.11691267716491e-09+-5.9642176911081e-10)

# Delete dir to make sure it is not reused

variable dir delete

# uyz Perturbation

variable dir equal 4
include /users/knc6/displace.mod
# NOTE: This script should not need to be
# modified. See in.elastic for more info.
#
# Find which reference length to use

variable len0 equal 47.2919869156831

# Reset box and simulation parameters

clear
box tilt large
read_restart restart.equil
  triclinic box = (0.162866 0.200209 -0.0573678) to (20.0871 29.0048 47.2346) with tilt (0 0 0)
  720 atoms
include potential.mod
pair_style eam/alloy
pair_coeff * * /users/knc6/Software/jarvis/jarvis/lammps/examples/Al03.eam.alloy  Al
neighbor 1.0 nsq
neigh_modify once no every 1 delay 0 check yes
min_style  cg
min_modify           dmax 0.01 line quadratic
thermo          1
thermo_style custom step temp press cpu pxx pyy pzz pxy pxz pyz ke pe etotal vol lx ly lz atoms
thermo_modify norm no
# Negative deformation

variable delta equal -1e-06*47.2919869156831
change_box all yz delta -4.72919869156831e-05 remap units box
  triclinic box = (0.162866 0.200209 -0.0573678) to (20.0871 29.0048 47.2346) with tilt (0 0 -4.7292e-05)

# Relax atoms positions

minimize 0 1e-10 1000 10000
  1 neighbor list requests
  update every 1 steps, delay 0 steps, check yes
Step Temp Press CPU Pxx Pyy Pzz Pxy Pxz Pyz KinEng PotEng TotEng Volume Lx Ly Lz Atoms
1022            0 0.0016112236            0 0.0062947562 -0.0098237543 0.0083626689 3.4905069e-10 1.1741987e-09   0.12403995            0   -2359.5389   -2359.5389    27141.319    19.924267    28.804546    47.291987      720
Loop time of 0.201562 on 1 procs for 40 steps with 720 atoms

Minimization stats:
  Stopping criterion = force tolerance
  Energy initial, next-to-last, final =
  Force two-norm initial, final = 2.38048e-05 5.79467e-11
  Force max component initial, final = 2.67895e-06 4.69529e-12
  Final line search alpha, max atom move = 1 4.69529e-12
  Iterations, force evaluations = 40 80

# Obtain new stress tensor

variable tmp equal pxx
variable pxx1 equal -1.6087981953358e-05
variable tmp equal pyy
variable pyy1 equal -1.11558527249118e-05
variable tmp equal pzz
variable pzz1 equal -3.28541927847017e-09
variable tmp equal pxy
variable pxy1 equal 1.11253941000032e-11
variable tmp equal pxz
variable pxz1 equal 3.44276489858721e-12
variable tmp equal pyz
variable pyz1 equal 1.22683326530076e-09

# Compute elastic constant from pressure tensor

variable C1neg equal 0.00056527214993672
variable C2neg equal 0.00044906754917589
variable C3neg equal 0.00124442739812581
variable C4neg equal -0.00224059884901568
variable C5neg equal 2.57574521258607e-09
variable C6neg equal 1.83622661448591e-09

# Reset box and simulation parameters

clear
box tilt large
read_restart restart.equil
  triclinic box = (0.162866 0.200209 -0.0573678) to (20.0871 29.0048 47.2346) with tilt (0 0 0)
  720 atoms
include potential.mod
pair_style eam/alloy
pair_coeff * * /users/knc6/Software/jarvis/jarvis/lammps/examples/Al03.eam.alloy  Al
neighbor 1.0 nsq
neigh_modify once no every 1 delay 0 check yes
min_style  cg
min_modify           dmax 0.01 line quadratic
thermo          1
thermo_style custom step temp press cpu pxx pyy pzz pxy pxz pyz ke pe etotal vol lx ly lz atoms
thermo_modify norm no

# Positive deformation

variable delta equal 1e-06*47.2919869156831
change_box all yz delta 4.72919869156831e-05 remap units box
  triclinic box = (0.162866 0.200209 -0.0573678) to (20.0871 29.0048 47.2346) with tilt (0 0 4.7292e-05)

# Relax atoms positions

minimize 0 1e-10 1000 10000
  1 neighbor list requests
  update every 1 steps, delay 0 steps, check yes
Step Temp Press CPU Pxx Pyy Pzz Pxy Pxz Pyz KinEng PotEng TotEng Volume Lx Ly Lz Atoms
1022            0 -0.0016285701            0 -0.0063262211 0.0098020515 -0.0083615407 3.5515264e-10 1.1672267e-09     -0.12404            0   -2359.5389   -2359.5389    27141.319    19.924267    28.804546    47.291987      720
Loop time of 0.201268 on 1 procs for 40 steps with 720 atoms

Minimization stats:
  Stopping criterion = force tolerance
  Energy initial, next-to-last, final =
  Force two-norm initial, final = 2.38049e-05 5.79561e-11
  Force max component initial, final = 2.67896e-06 4.18173e-12
  Final line search alpha, max atom move = 1 4.18173e-12
  Iterations, force evaluations = 40 80

# Obtain new stress tensor

variable tmp equal pe
variable e1 equal -2359.53886067346
variable tmp equal press
variable p1 equal -9.08449407543902e-06
variable tmp equal pxx
variable pxx1 equal -1.60915958823486e-05
variable tmp equal pyy
variable pyy1 equal -1.11639113598494e-05
variable tmp equal pzz
variable pzz1 equal 2.02501588093729e-09
variable tmp equal pxy
variable pxy1 equal -5.68947108166286e-12
variable tmp equal pxz
variable pxz1 equal 9.08431170979978e-12
variable tmp equal pyz
variable pyz1 equal 1.69895675798691e-09

# Compute elastic constant from pressure tensor

variable C1pos equal -0.00056491075703766
variable C2pos equal -0.00044826168568213
variable C3pos equal -0.00124495844164175
variable C4pos equal 0.00224055163666641
variable C5pos equal -3.13989989370733e-09
variable C6pos equal -1.54740096319308e-10

# Combine positive and negative

variable C14 equal 0.5*(0.00056527214993672+-0.00056491075703766)
variable C24 equal 0.5*(0.00044906754917589+-0.00044826168568213)
variable C34 equal 0.5*(0.00124442739812581+-0.00124495844164175)
variable C44 equal 0.5*(-0.00224059884901568+0.00224055163666641)
variable C54 equal 0.5*(2.57574521258607e-09+-3.13989989370733e-09)
variable C64 equal 0.5*(1.83622661448591e-09+-1.54740096319308e-10)

# Delete dir to make sure it is not reused

variable dir delete

# uxz Perturbation

variable dir equal 5
include /users/knc6/displace.mod
# NOTE: This script should not need to be
# modified. See in.elastic for more info.
#
# Find which reference length to use

variable len0 equal 47.2919869156831

# Reset box and simulation parameters

clear
box tilt large
read_restart restart.equil
  triclinic box = (0.162866 0.200209 -0.0573678) to (20.0871 29.0048 47.2346) with tilt (0 0 0)
  720 atoms
include potential.mod
pair_style eam/alloy
pair_coeff * * /users/knc6/Software/jarvis/jarvis/lammps/examples/Al03.eam.alloy  Al
neighbor 1.0 nsq
neigh_modify once no every 1 delay 0 check yes
min_style  cg
min_modify           dmax 0.01 line quadratic
thermo          1
thermo_style custom step temp press cpu pxx pyy pzz pxy pxz pyz ke pe etotal vol lx ly lz atoms
thermo_modify norm no
# Negative deformation

variable delta equal -1e-06*47.2919869156831
change_box all xz delta -4.72919869156831e-05 remap units box
  triclinic box = (0.162866 0.200209 -0.0573678) to (20.0871 29.0048 47.2346) with tilt (0 -4.7292e-05 0)

# Relax atoms positions

minimize 0 1e-10 1000 10000
  1 neighbor list requests
  update every 1 steps, delay 0 steps, check yes
Step Temp Press CPU Pxx Pyy Pzz Pxy Pxz Pyz KinEng PotEng TotEng Volume Lx Ly Lz Atoms
1022            0 -8.598379e-06            0 -1.5629545e-05 -1.0780183e-05 6.145909e-07 0.0065360636   0.15878976 -6.6315406e-08            0   -2359.5389   -2359.5389    27141.319    19.924267    28.804546    47.291987      720
Loop time of 0.151228 on 1 procs for 30 steps with 720 atoms

Minimization stats:
  Stopping criterion = force tolerance
  Energy initial, next-to-last, final =
  Force two-norm initial, final = 3.82394e-05 4.02196e-11
  Force max component initial, final = 3.97041e-06 3.2523e-12
  Final line search alpha, max atom move = 1 3.2523e-12
  Iterations, force evaluations = 30 60

# Obtain new stress tensor

variable tmp equal pxx
variable pxx1 equal -1.61224619023665e-05
variable tmp equal pyy
variable pyy1 equal -1.11919291019242e-05
variable tmp equal pzz
variable pzz1 equal -5.75280648674069e-08
variable tmp equal pxy
variable pxy1 equal 1.04290216816286e-09
variable tmp equal pxz
variable pxz1 equal 3.37094280154819e-09
variable tmp equal pyz
variable pyz1 equal 2.43542649182676e-08

# Compute elastic constant from pressure tensor

variable C1neg equal 0.00056182415503587
variable C2neg equal 0.00044545991147465
variable C3neg equal 0.00123900313356692
variable C4neg equal -0.00223828610585038
variable C5neg equal 3.39325748877546e-07
variable C6neg equal 1.05013904020772e-07

# Reset box and simulation parameters

clear
box tilt large
read_restart restart.equil
  triclinic box = (0.162866 0.200209 -0.0573678) to (20.0871 29.0048 47.2346) with tilt (0 0 0)
  720 atoms
include potential.mod
pair_style eam/alloy
pair_coeff * * /users/knc6/Software/jarvis/jarvis/lammps/examples/Al03.eam.alloy  Al
neighbor 1.0 nsq
neigh_modify once no every 1 delay 0 check yes
min_style  cg
min_modify           dmax 0.01 line quadratic
thermo          1
thermo_style custom step temp press cpu pxx pyy pzz pxy pxz pyz ke pe etotal vol lx ly lz atoms
thermo_modify norm no

# Positive deformation

variable delta equal 1e-06*47.2919869156831
change_box all xz delta 4.72919869156831e-05 remap units box
  triclinic box = (0.162866 0.200209 -0.0573678) to (20.0871 29.0048 47.2346) with tilt (0 4.7292e-05 0)

# Relax atoms positions

minimize 0 1e-10 1000 10000
  1 neighbor list requests
  update every 1 steps, delay 0 steps, check yes
Step Temp Press CPU Pxx Pyy Pzz Pxy Pxz Pyz KinEng PotEng TotEng Volume Lx Ly Lz Atoms
1022            0 -8.5983753e-06            0 -1.5629545e-05 -1.0780171e-05 6.1459029e-07 -0.0065360629  -0.15878975 -6.6296375e-08            0   -2359.5389   -2359.5389    27141.319    19.924267    28.804546    47.291987      720
Loop time of 0.151472 on 1 procs for 30 steps with 720 atoms

Minimization stats:
  Stopping criterion = force tolerance
  Energy initial, next-to-last, final =
  Force two-norm initial, final = 3.82394e-05 4.02204e-11
  Force max component initial, final = 3.97041e-06 3.2254e-12
  Final line search alpha, max atom move = 1 3.2254e-12
  Iterations, force evaluations = 30 60

# Obtain new stress tensor

variable tmp equal pe
variable e1 equal -2359.53886067356
variable tmp equal press
variable p1 equal -9.12397224390781e-06
variable tmp equal pxx
variable pxx1 equal -1.61224726369934e-05
variable tmp equal pyy
variable pyy1 equal -1.11919091549826e-05
variable tmp equal pzz
variable pzz1 equal -5.75349397473662e-08
variable tmp equal pxy
variable pxy1 equal -1.0497082337851e-09
variable tmp equal pxz
variable pxz1 equal -3.39735890518588e-09
variable tmp equal pyz
variable pyz1 equal 2.43508790890407e-08

# Compute elastic constant from pressure tensor

variable C1pos equal -0.00056182308157318
variable C2pos equal -0.00044546190616881
variable C3pos equal -0.00123900244607892
variable C4pos equal 0.00223828644443331
variable C5pos equal 3.37504421795861e-07
variable C6pos equal 1.04247136174024e-07

# Combine positive and negative

variable C15 equal 0.5*(0.00056182415503587+-0.00056182308157318)
variable C25 equal 0.5*(0.00044545991147465+-0.00044546190616881)
variable C35 equal 0.5*(0.00123900313356692+-0.00123900244607892)
variable C45 equal 0.5*(-0.00223828610585038+0.00223828644443331)
variable C55 equal 0.5*(3.39325748877546e-07+3.37504421795861e-07)
variable C65 equal 0.5*(1.05013904020772e-07+1.04247136174024e-07)

# Delete dir to make sure it is not reused

variable dir delete

# uxy Perturbation

variable dir equal 6
include /users/knc6/displace.mod
# NOTE: This script should not need to be
# modified. See in.elastic for more info.
#
# Find which reference length to use

variable len0 equal 28.8045463775457

# Reset box and simulation parameters

clear
box tilt large
read_restart restart.equil
  triclinic box = (0.162866 0.200209 -0.0573678) to (20.0871 29.0048 47.2346) with tilt (0 0 0)
  720 atoms
include potential.mod
pair_style eam/alloy
pair_coeff * * /users/knc6/Software/jarvis/jarvis/lammps/examples/Al03.eam.alloy  Al
neighbor 1.0 nsq
neigh_modify once no every 1 delay 0 check yes
min_style  cg
min_modify           dmax 0.01 line quadratic
thermo          1
thermo_style custom step temp press cpu pxx pyy pzz pxy pxz pyz ke pe etotal vol lx ly lz atoms
thermo_modify norm no
# Negative deformation

variable delta equal -1e-06*28.8045463775457
change_box all xy delta -2.88045463775457e-05 remap units box
  triclinic box = (0.162866 0.200209 -0.0573678) to (20.0871 29.0048 47.2346) with tilt (-2.88045e-05 0 0)

# Relax atoms positions

minimize 0 1e-10 1000 10000
  1 neighbor list requests
  update every 1 steps, delay 0 steps, check yes
Step Temp Press CPU Pxx Pyy Pzz Pxy Pxz Pyz KinEng PotEng TotEng Volume Lx Ly Lz Atoms
1022            0 -8.5394825e-06            0 -1.5541234e-05 -1.0618352e-05 5.4113805e-07   0.14885393 0.0065360674 6.4823821e-08            0   -2359.5389   -2359.5389    27141.319    19.924267    28.804546    47.291987      720
Loop time of 0.148535 on 1 procs for 29 steps with 720 atoms

Minimization stats:
  Stopping criterion = force tolerance
  Energy initial, next-to-last, final =
  Force two-norm initial, final = 1.80929e-05 4.55832e-11
  Force max component initial, final = 2.43516e-06 4.04e-12
  Final line search alpha, max atom move = 1 4.04e-12
  Iterations, force evaluations = 29 58

# Obtain new stress tensor

variable tmp equal pxx
variable pxx1 equal -1.58796810229797e-05
variable tmp equal pyy
variable pyy1 equal -1.09343712268742e-05
variable tmp equal pzz
variable pzz1 equal -4.76035956396071e-08
variable tmp equal pxy
variable pxy1 equal 0.144229982903482
variable tmp equal pxz
variable pxz1 equal 2.52597606252802e-09
variable tmp equal pyz
variable pyz1 equal -3.79467650298605e-10

# Compute elastic constant from pressure tensor

variable C1neg equal 0.00058610224297455
variable C2neg equal 0.00047121569897965
variable C3neg equal 0.0012399955804897
variable C4neg equal -0.00224075947910724
variable C5neg equal 2.54829074975529e-07
variable C6neg equal 14.4229982910719

# Reset box and simulation parameters

clear
box tilt large
read_restart restart.equil
  triclinic box = (0.162866 0.200209 -0.0573678) to (20.0871 29.0048 47.2346) with tilt (0 0 0)
  720 atoms
include potential.mod
pair_style eam/alloy
pair_coeff * * /users/knc6/Software/jarvis/jarvis/lammps/examples/Al03.eam.alloy  Al
neighbor 1.0 nsq
neigh_modify once no every 1 delay 0 check yes
min_style  cg
min_modify           dmax 0.01 line quadratic
thermo          1
thermo_style custom step temp press cpu pxx pyy pzz pxy pxz pyz ke pe etotal vol lx ly lz atoms
thermo_modify norm no

# Positive deformation

variable delta equal 1e-06*28.8045463775457
change_box all xy delta 2.88045463775457e-05 remap units box
  triclinic box = (0.162866 0.200209 -0.0573678) to (20.0871 29.0048 47.2346) with tilt (2.88045e-05 0 0)

# Relax atoms positions

minimize 0 1e-10 1000 10000
  1 neighbor list requests
  update every 1 steps, delay 0 steps, check yes
Step Temp Press CPU Pxx Pyy Pzz Pxy Pxz Pyz KinEng PotEng TotEng Volume Lx Ly Lz Atoms
1022            0 -8.5394888e-06            0 -1.5541241e-05 -1.0618367e-05 5.4114235e-07  -0.14885393 -0.006536065 6.4821821e-08            0   -2359.5389   -2359.5389    27141.319    19.924267    28.804546    47.291987      720
Loop time of 0.148581 on 1 procs for 29 steps with 720 atoms

Minimization stats:
  Stopping criterion = force tolerance
  Energy initial, next-to-last, final =
  Force two-norm initial, final = 1.80928e-05 4.55518e-11
  Force max component initial, final = 2.43516e-06 4.06152e-12
  Final line search alpha, max atom move = 1 4.06152e-12
  Iterations, force evaluations = 29 58

# Obtain new stress tensor

variable tmp equal pe
variable e1 equal -2359.53886067236
variable tmp equal press
variable p1 equal -8.95387925491041e-06
variable tmp equal pxx
variable pxx1 equal -1.5879676443447e-05
variable tmp equal pyy
variable pyy1 equal -1.09343621035472e-05
variable tmp equal pzz
variable pzz1 equal -4.7599217737021e-08
variable tmp equal pxy
variable pxy1 equal -0.144229982923292
variable tmp equal pxz
variable pxz1 equal -2.54753051517448e-09
variable tmp equal pyz
variable pyz1 equal -3.80467506231674e-10

# Compute elastic constant from pressure tensor

variable C1pos equal -0.00058610270092782
variable C2pos equal -0.00047121661131235
variable C3pos equal -0.00123999601827996
variable C4pos equal 0.00224075957909283
variable C5pos equal 2.52521582794721e-07
variable C6pos equal 14.4229982916055

# Combine positive and negative

variable C16 equal 0.5*(0.00058610224297455+-0.00058610270092782)
variable C26 equal 0.5*(0.00047121569897965+-0.00047121661131235)
variable C36 equal 0.5*(0.0012399955804897+-0.00123999601827996)
variable C46 equal 0.5*(-0.00224075947910724+0.00224075957909283)
variable C56 equal 0.5*(2.54829074975529e-07+2.52521582794721e-07)
variable C66 equal 0.5*(14.4229982910719+14.4229982916055)

# Delete dir to make sure it is not reused

variable dir delete

# Output final values

variable C11all equal 37.3558089432823
variable C22all equal 42.8035397573475
variable C33all equal -3.11241730200111e-08

variable C12all equal 0.5*(13.826604990141+13.8266064118209)
variable C13all equal 0.5*(-1.18268167459987e-07+3.90829553950124e-08)
variable C23all equal 0.5*(-1.10015400426e-06+-4.84983657884994e-07)

variable C44all equal -2.36061746350467e-08
variable C55all equal 3.38415085336703e-07
variable C66all equal 14.4229982913387

variable C14all equal 0.5*(1.80696449530006e-07+-3.94190943490101e-07)
variable C15all equal 0.5*(5.36731345024237e-10+3.417150884011e-10)
variable C16all equal 0.5*(-2.28976635016035e-10+-3.39115653463854e-10)

variable C24all equal 0.5*(4.02931746879996e-07+3.50439374600161e-08)
variable C25all equal 0.5*(-9.97347080004254e-10+6.1080924996502e-10)
variable C26all equal 0.5*(-4.56166350000639e-10+4.51440909836405e-10)

variable C34all equal 0.5*(-2.65521757969998e-07+-1.0478980541997e-07)
variable C35all equal 0.5*(3.43743999952663e-10+-1.99231203027745e-10)
variable C36all equal 0.5*(-2.18895129995046e-10+7.6024545402705e-10)

variable C45all equal 0.5*(1.69291464961058e-10+-2.8207734056063e-10)
variable C46all equal 0.5*(4.99927948430928e-11+8.40743259083301e-10)
variable C56all equal 0.5*(2.53675328885125e-07+1.04630520097398e-07)

# For Stillinger-Weber silicon, the analytical results
# are known to be (E. R. Cowley, 1988):
#               C11 = 151.4 GPa
#               C12 = 76.4 GPa
#               C44 = 56.4 GPa

Elastic Constant C11all = 37.3558089432823 GPa
Elastic Constant C22all = 42.8035397573475 GPa
Elastic Constant C33all = -3.11241730200111e-08 GPa

Elastic Constant C12all = 13.8266057009809 GPa
Elastic Constant C13all = -3.95926060324873e-08 GPa
Elastic Constant C23all = -7.92568831072497e-07 GPa

Elastic Constant C44all = -2.36061746350467e-08 GPa
Elastic Constant C55all = 3.38415085336703e-07 GPa
Elastic Constant C66all = 14.4229982913387 GPa

Elastic Constant C14all = -1.06747246980047e-07 GPa
Elastic Constant C15all = 4.39223216712668e-10 GPa
Elastic Constant C16all = -2.84046144239944e-10 GPa

Elastic Constant C24all = 2.18987842170006e-07 GPa
Elastic Constant C25all = -1.93268915019617e-10 GPa
Elastic Constant C26all = -2.36272008211701e-12 GPa

Elastic Constant C34all = -1.85155781694984e-07 GPa
Elastic Constant C35all = 7.2256398462459e-11 GPa
Elastic Constant C36all = 2.70675162016002e-10 GPa

Elastic Constant C45all = -5.6392937799786e-11 GPa
Elastic Constant C46all = 4.45368026963197e-10 GPa
Elastic Constant C56all = 1.79152924491262e-07 GPa
