LAMMPS (13 Jan 2016)
include /users/knc6/inelast.mod
# Compute elastic constant tensor for a crystal
#
# Written by Aidan Thompson (Sandia, athomps@sandia.gov)
#
#  This script uses the following three include files.
#
#   init.mod      (must be modified for different crystal structures)
# 	       	  Define units, deformation parameters and initial
#		  configuration of the atoms and simulation cell.
#
#
#   potential.mod    (must be modified for different pair styles)
# 		     Define pair style and other attributes
#		     not stored in restart file
#
#
#   displace.mod    (displace.mod should not need to be modified)
# 		    Perform positive and negative box displacements
# 		    It uses the resultant changes
#		    in stress to compute one
# 		    row of the elastic stiffness tensor
#
#		    Inputs variables:
#		    	   dir = the Voigt deformation component
#		    		    (1,2,3,4,5,6)
#		    Global constants:
#       	    	   up = the deformation magnitude (strain units)
#       		   cfac = conversion from LAMMPS pressure units to
#               	   output units for elastic constants
#
#
#  To run this on a different system, it should only be necessary to
#  modify the files init.mod and potential.mod. In order to calculate
#  the elastic constants correctly, care must be taken to specify
#  the correct units in init.mod (units, cfac and cunits). It is also
#  important to verify that the minimization of energy w.r.t atom
#  positions in the deformed cell is fully converged.
#  One indication of this is that the elastic constants are insensitive
#  the final max and two-norm forces reported in the log file. If you know
#  that minimization is not required, you can set maxiter = 0.0 in
#  init.mod.
#
#  There are two alternate versions of displace.mod provided.
#  They are displace_restart.mod and displace_reverse.mod.
#  The former resets the box using a restart file while
#  the latter reverses the deformation. Copy whichever
#  one you like best to displace.mod.
#

include init.mod
variable dump_file string "None"
variable up  equal 1.0e-6
variable cfac  equal 1.0e-4
variable cunits  string GPa
variable etol  equal 0
variable ftol  equal 1.0e-10
variable maxiter equal 1000
variable maxeval equal 10000
variable dmax equal 1.0e-2
variable data_file string "data"
units metal
atom_style charge
boundary p p p
atom_modify sort 0 0.0

read_data data
  triclinic box = (0 0 0) to (16.2 24.3 24.3) with tilt (0 0 0)
  reading atoms ...
  575 atoms

### interactions
mass 1 26.98154
include potential.mod
pair_style eam/alloy
pair_coeff * * /users/knc6/Software/jarvis/jarvis/lammps/examples/Al03.eam.alloy  Al
neighbor 1.0 nsq
neigh_modify once no every 1 delay 0 check yes
min_style  cg
min_modify           dmax 0.01 line quadratic
thermo          1
thermo_style custom step temp press cpu pxx pyy pzz pxy pxz pyz ke pe etotal vol lx ly lz atoms
thermo_modify norm no
#fix 3 all nph aniso 0.0 0.0 1.0
#fix langevin all langevin 0.0 0.0 1.0 12233

#fix 3 all box/relax tri 0.0 vmax 0.001
fix            3 all box/relax aniso 0.0 vmax 0.001
#fix 3 all box/relax  aniso 0.0
#dump            2a all cfg 100 *.cfg mass type xs ys zs  vx vy vz fx fy fz
#dump_modify     2a element  Mo S

#fix 1a all qeq/comb 1 0.0001 file fq.out
#fix             2 all qeq/reax 1 0.0 10.0 1e-6 /scratch/lfs/kamal/JARVIS/All2/ReaxFF/param.qeq
minimize 0 1e-10 1000 10000
  1 neighbor list requests
  update every 1 steps, delay 0 steps, check yes
Step Temp Press CPU Pxx Pyy Pzz Pxy Pxz Pyz KinEng PotEng TotEng Volume Lx Ly Lz Atoms
0            0   -517.60797            0   -517.60798   -517.60798   -517.60796 -6.9172899e-12 -5.7957592e-09 -1.2533839e-08            0   -1931.2738   -1931.2738    9565.9378         16.2         24.3         24.3      575
Averages over the last 501 of 1001 rows, steps 500 to 1000:
Temp Press Pxx Pyy Pzz Pxy Pxz Pyz KinEng PotEng TotEng Volume Lx Ly Lz Atoms
0 -0.173157 -0.174928 -0.178967 -0.165576 1.05148e-13 -4.21845e-10 7.16982e-11 0 -1931.29 -1931.29 9559.08 16.1961 24.2942 24.2942 575
Loop time of 4.50564 on 1 procs for 1000 steps with 575 atoms

Minimization stats:
  Stopping criterion = max iterations
  Energy initial, next-to-last, final =
  Force two-norm initial, final = 5.36228 0.0237923
  Force max component initial, final = 3.09042 0.0144896
  Final line search alpha, max atom move = 0.0948999 0.00137506
  Iterations, force evaluations = 1000 1999

variable tmp equal pxx
variable pxx0 equal -1.88222216787067
variable tmp equal pyy
variable pyy0 equal -0.722303728195582
variable tmp equal pzz
variable pzz0 equal -2.42799630941777
variable tmp equal pyz
variable pyz0 equal -2.24269576186788e-09
variable tmp equal pxz
variable pxz0 equal 2.98588499534904e-09
variable tmp equal pxy
variable pxy0 equal 4.91255594052228e-12

variable tmp equal lx
variable lx0 equal 16.1961488476117
variable tmp equal ly
variable ly0 equal 24.2941646056077
variable tmp equal lz
variable lz0 equal 24.2942376836039

# These formulas define the derivatives w.r.t. strain components
# Constants uses $, variables use v_
variable d1 equal -(v_pxx1--1.88222216787067)/(v_delta/v_len0)*0.0001
variable d2 equal -(v_pyy1--0.722303728195582)/(v_delta/v_len0)*0.0001
variable d3 equal -(v_pzz1--2.42799630941777)/(v_delta/v_len0)*0.0001
variable d4 equal -(v_pyz1--2.24269576186788e-09)/(v_delta/v_len0)*0.0001
variable d5 equal -(v_pxz1-2.98588499534904e-09)/(v_delta/v_len0)*0.0001
variable d6 equal -(v_pxy1-4.91255594052228e-12)/(v_delta/v_len0)*0.0001

# Write restart
unfix 3
minimize 0 1e-10 1000 10000
Step Temp Press CPU Pxx Pyy Pzz Pxy Pxz Pyz KinEng PotEng TotEng Volume Lx Ly Lz Atoms
1000            0   -1.6775074            0   -1.8822222  -0.72230373   -2.4279963 -6.0662623e-12 2.9893089e-09 -2.2629508e-09            0   -1931.2925   -1931.2925       9559.1    16.196149    24.294165    24.294238      575
Loop time of 0.173147 on 1 procs for 39 steps with 575 atoms

Minimization stats:
  Stopping criterion = force tolerance
  Energy initial, next-to-last, final =
  Force two-norm initial, final = 0.0145386 9.98066e-11
  Force max component initial, final = 0.00149607 1.14409e-11
  Final line search alpha, max atom move = 1 1.14409e-11
  Iterations, force evaluations = 39 78

#fix 1a all qeq/comb 1 0.0001 file fq.out
write_restart restart.equil
write_data data0

# uxx Perturbation

variable dir equal 1
include /users/knc6/displace.mod
# NOTE: This script should not need to be
# modified. See in.elastic for more info.
#
# Find which reference length to use

variable len0 equal 16.1961488476117

# Reset box and simulation parameters

clear
box tilt large
read_restart restart.equil
  triclinic box = (0.00192551 0.0029176 0.00288106) to (16.1981 24.2971 24.2971) with tilt (0 0 0)
  575 atoms
include potential.mod
pair_style eam/alloy
pair_coeff * * /users/knc6/Software/jarvis/jarvis/lammps/examples/Al03.eam.alloy  Al
neighbor 1.0 nsq
neigh_modify once no every 1 delay 0 check yes
min_style  cg
min_modify           dmax 0.01 line quadratic
thermo          1
thermo_style custom step temp press cpu pxx pyy pzz pxy pxz pyz ke pe etotal vol lx ly lz atoms
thermo_modify norm no
# Negative deformation

variable delta equal -1e-06*16.1961488476117
change_box all x delta 0 -1.61961488476117e-05 remap units box
  triclinic box = (0.00192551 0.0029176 0.00288106) to (16.1981 24.2971 24.2971) with tilt (0 0 0)

# Relax atoms positions

minimize 0 1e-10 1000 10000
  1 neighbor list requests
  update every 1 steps, delay 0 steps, check yes
Step Temp Press CPU Pxx Pyy Pzz Pxy Pxz Pyz KinEng PotEng TotEng Volume Lx Ly Lz Atoms
1039            0   -0.9412833            0  -0.79938664  -0.16247486   -1.8619884 -8.745847e-12 9.8995544e-12 1.4886548e-12            0   -1931.2926   -1931.2926    9559.0904    16.196133    24.294165    24.294238      575
Loop time of 0.102138 on 1 procs for 23 steps with 575 atoms

Minimization stats:
  Stopping criterion = force tolerance
  Energy initial, next-to-last, final =
  Force two-norm initial, final = 5.84277e-06 6.29027e-11
  Force max component initial, final = 1.45715e-06 6.29817e-12
  Final line search alpha, max atom move = 1 6.29817e-12
  Iterations, force evaluations = 23 46

# Obtain new stress tensor

variable tmp equal pxx
variable pxx1 equal -0.801407554181941
variable tmp equal pyy
variable pyy1 equal -0.162418107722067
variable tmp equal pzz
variable pzz1 equal -1.86193156326432
variable tmp equal pxy
variable pxy1 equal 3.72163700991147e-12
variable tmp equal pxz
variable pxz1 equal 1.05322327380494e-11
variable tmp equal pyz
variable pyz1 equal 2.86100845136944e-13

# Compute elastic constant from pressure tensor

variable C1neg equal 108.081461368873
variable C2neg equal 55.9885620473515
variable C3neg equal 56.606474615345
variable C4neg equal 2.24298186271302e-07
variable C5neg equal -2.97535276261099e-07
variable C6neg equal -1.19091893061081e-10

# Reset box and simulation parameters

clear
box tilt large
read_restart restart.equil
  triclinic box = (0.00192551 0.0029176 0.00288106) to (16.1981 24.2971 24.2971) with tilt (0 0 0)
  575 atoms
include potential.mod
pair_style eam/alloy
pair_coeff * * /users/knc6/Software/jarvis/jarvis/lammps/examples/Al03.eam.alloy  Al
neighbor 1.0 nsq
neigh_modify once no every 1 delay 0 check yes
min_style  cg
min_modify           dmax 0.01 line quadratic
thermo          1
thermo_style custom step temp press cpu pxx pyy pzz pxy pxz pyz ke pe etotal vol lx ly lz atoms
thermo_modify norm no

# Positive deformation

variable delta equal 1e-06*16.1961488476117
change_box all x delta 0 1.61961488476117e-05 remap units box
  triclinic box = (0.00192551 0.0029176 0.00288106) to (16.1981 24.2971 24.2971) with tilt (0 0 0)

# Relax atoms positions

minimize 0 1e-10 1000 10000
  1 neighbor list requests
  update every 1 steps, delay 0 steps, check yes
Step Temp Press CPU Pxx Pyy Pzz Pxy Pxz Pyz KinEng PotEng TotEng Volume Lx Ly Lz Atoms
1039            0   -2.5237759            0   -3.1379704   -1.3669302   -3.0664272 2.3074103e-12 8.0945443e-12 9.8855785e-13            0   -1931.2926   -1931.2926    9559.1096    16.196165    24.294165    24.294238      575
Loop time of 0.102554 on 1 procs for 23 steps with 575 atoms

Minimization stats:
  Stopping criterion = force tolerance
  Energy initial, next-to-last, final =
  Force two-norm initial, final = 5.84275e-06 6.29117e-11
  Force max component initial, final = 1.45715e-06 6.34604e-12
  Final line search alpha, max atom move = 1 6.34604e-12
  Iterations, force evaluations = 23 46

# Obtain new stress tensor

variable tmp equal pe
variable e1 equal -1931.29258351597
variable tmp equal press
variable p1 equal -2.52314015832262
variable tmp equal pxx
variable pxx1 equal -3.13594947841815
variable tmp equal pyy
variable pyy1 equal -1.36698698262715
variable tmp equal pzz
variable pzz1 equal -3.06648401392254
variable tmp equal pxy
variable pxy1 equal -6.8477984026266e-12
variable tmp equal pxz
variable pxz1 equal -6.14068878496407e-13
variable tmp equal pyz
variable pyz1 equal -1.6428668518258e-11

# Compute elastic constant from pressure tensor

variable C1pos equal 125.372731054748
variable C2pos equal 64.4683254431568
variable C3pos equal 63.848770450477
variable C4pos equal -2.22626709334962e-07
variable C5pos equal 2.98649906422754e-07
variable C6pos equal 1.17603543431489e-09

# Combine positive and negative

variable C11 equal 0.5*(108.081461368873+125.372731054748)
variable C21 equal 0.5*(55.9885620473515+64.4683254431568)
variable C31 equal 0.5*(56.606474615345+63.848770450477)
variable C41 equal 0.5*(2.24298186271302e-07+-2.22626709334962e-07)
variable C51 equal 0.5*(-2.97535276261099e-07+2.98649906422754e-07)
variable C61 equal 0.5*(-1.19091893061081e-10+1.17603543431489e-09)

# Delete dir to make sure it is not reused

variable dir delete

# uyy Perturbation

variable dir equal 2
include /users/knc6/displace.mod
# NOTE: This script should not need to be
# modified. See in.elastic for more info.
#
# Find which reference length to use

variable len0 equal 24.2941646056077

# Reset box and simulation parameters

clear
box tilt large
read_restart restart.equil
  triclinic box = (0.00192551 0.0029176 0.00288106) to (16.1981 24.2971 24.2971) with tilt (0 0 0)
  575 atoms
include potential.mod
pair_style eam/alloy
pair_coeff * * /users/knc6/Software/jarvis/jarvis/lammps/examples/Al03.eam.alloy  Al
neighbor 1.0 nsq
neigh_modify once no every 1 delay 0 check yes
min_style  cg
min_modify           dmax 0.01 line quadratic
thermo          1
thermo_style custom step temp press cpu pxx pyy pzz pxy pxz pyz ke pe etotal vol lx ly lz atoms
thermo_modify norm no
# Negative deformation

variable delta equal -1e-06*24.2941646056077
change_box all y delta 0 -2.42941646056077e-05 remap units box
  triclinic box = (0.00192551 0.0029176 0.00288106) to (16.1981 24.2971 24.2971) with tilt (0 0 0)

# Relax atoms positions

minimize 0 1e-10 1000 10000
  1 neighbor list requests
  update every 1 steps, delay 0 steps, check yes
Step Temp Press CPU Pxx Pyy Pzz Pxy Pxz Pyz KinEng PotEng TotEng Volume Lx Ly Lz Atoms
1039            0   -0.9412874            0   -1.3664551   0.40458372   -1.8619908 1.4235262e-11 1.4402735e-11 -3.3634294e-12            0   -1931.2926   -1931.2926    9559.0904    16.196149     24.29414    24.294238      575
Loop time of 0.129454 on 1 procs for 27 steps with 575 atoms

Minimization stats:
  Stopping criterion = force tolerance
  Energy initial, next-to-last, final =
  Force two-norm initial, final = 5.84826e-06 7.73149e-11
  Force max component initial, final = 1.45782e-06 8.20397e-12
  Final line search alpha, max atom move = 1 8.20397e-12
  Iterations, force evaluations = 27 54

# Obtain new stress tensor

variable tmp equal pxx
variable pxx1 equal -1.36639836305258
variable tmp equal pyy
variable pyy1 equal 0.40256118995773
variable tmp equal pzz
variable pzz1 equal -1.86194243632334
variable tmp equal pxy
variable pxy1 equal -9.06218611913442e-12
variable tmp equal pxz
variable pxz1 equal -1.3788665121722e-11
variable tmp equal pyz
variable pyz1 equal 8.1108426584758e-12

# Compute elastic constant from pressure tensor

variable C1neg equal 51.582380481809
variable C2neg equal 112.486491815331
variable C3neg equal 56.605387309443
variable C4neg equal 2.25080660452636e-07
variable C5neg equal -2.99967366047076e-07
variable C6neg equal -1.39747420596567e-09

# Reset box and simulation parameters

clear
box tilt large
read_restart restart.equil
  triclinic box = (0.00192551 0.0029176 0.00288106) to (16.1981 24.2971 24.2971) with tilt (0 0 0)
  575 atoms
include potential.mod
pair_style eam/alloy
pair_coeff * * /users/knc6/Software/jarvis/jarvis/lammps/examples/Al03.eam.alloy  Al
neighbor 1.0 nsq
neigh_modify once no every 1 delay 0 check yes
min_style  cg
min_modify           dmax 0.01 line quadratic
thermo          1
thermo_style custom step temp press cpu pxx pyy pzz pxy pxz pyz ke pe etotal vol lx ly lz atoms
thermo_modify norm no

# Positive deformation

variable delta equal 1e-06*24.2941646056077
change_box all y delta 0 2.42941646056077e-05 remap units box
  triclinic box = (0.00192551 0.0029176 0.00288106) to (16.1981 24.2971 24.2971) with tilt (0 0 0)

# Relax atoms positions

minimize 0 1e-10 1000 10000
  1 neighbor list requests
  update every 1 steps, delay 0 steps, check yes
Step Temp Press CPU Pxx Pyy Pzz Pxy Pxz Pyz KinEng PotEng TotEng Volume Lx Ly Lz Atoms
1039            0   -2.5237719            0   -2.5709081   -1.9339828   -3.0664248 -3.907711e-13 2.2255345e-11 7.3944127e-12            0   -1931.2926   -1931.2926    9559.1096    16.196149    24.294189    24.294238      575
Loop time of 0.120382 on 1 procs for 27 steps with 575 atoms

Minimization stats:
  Stopping criterion = force tolerance
  Energy initial, next-to-last, final =
  Force two-norm initial, final = 5.84827e-06 7.73131e-11
  Force max component initial, final = 1.45783e-06 8.19218e-12
  Final line search alpha, max atom move = 1 8.19218e-12
  Iterations, force evaluations = 27 54

# Obtain new stress tensor

variable tmp equal pe
variable e1 equal -1931.29258352321
variable tmp equal press
variable p1 equal -2.52313279231413
variable tmp equal pxx
variable pxx1 equal -2.5709648394221
variable tmp equal pyy
variable pyy1 equal -1.93196031969147
variable tmp equal pzz
variable pzz1 equal -3.06647321782883
variable tmp equal pxy
variable pxy1 equal -4.22404955814195e-12
variable tmp equal pxz
variable pxz1 equal -9.11799243827998e-12
variable tmp equal pyz
variable pyz1 equal 2.48255952280006e-11

# Compute elastic constant from pressure tensor

variable C1pos equal 68.874267155143
variable C2pos equal 120.965659149589
variable C3pos equal 63.847690841106
variable C4pos equal -2.26752135709588e-07
variable C5pos equal 2.99500298778732e-07
variable C6pos equal 9.13660549866423e-10

# Combine positive and negative

variable C12 equal 0.5*(51.582380481809+68.874267155143)
variable C22 equal 0.5*(112.486491815331+120.965659149589)
variable C32 equal 0.5*(56.605387309443+63.847690841106)
variable C42 equal 0.5*(2.25080660452636e-07+-2.26752135709588e-07)
variable C52 equal 0.5*(-2.99967366047076e-07+2.99500298778732e-07)
variable C62 equal 0.5*(-1.39747420596567e-09+9.13660549866423e-10)

# Delete dir to make sure it is not reused

variable dir delete

# uzz Perturbation

variable dir equal 3
include /users/knc6/displace.mod
# NOTE: This script should not need to be
# modified. See in.elastic for more info.
#
# Find which reference length to use

variable len0 equal 24.2942376836039

# Reset box and simulation parameters

clear
box tilt large
read_restart restart.equil
  triclinic box = (0.00192551 0.0029176 0.00288106) to (16.1981 24.2971 24.2971) with tilt (0 0 0)
  575 atoms
include potential.mod
pair_style eam/alloy
pair_coeff * * /users/knc6/Software/jarvis/jarvis/lammps/examples/Al03.eam.alloy  Al
neighbor 1.0 nsq
neigh_modify once no every 1 delay 0 check yes
min_style  cg
min_modify           dmax 0.01 line quadratic
thermo          1
thermo_style custom step temp press cpu pxx pyy pzz pxy pxz pyz ke pe etotal vol lx ly lz atoms
thermo_modify norm no
# Negative deformation

variable delta equal -1e-06*24.2942376836039
change_box all z delta 0 -2.42942376836039e-05 remap units box
  triclinic box = (0.00192551 0.0029176 0.00288106) to (16.1981 24.2971 24.2971) with tilt (0 0 0)

# Relax atoms positions

minimize 0 1e-10 1000 10000
  1 neighbor list requests
  update every 1 steps, delay 0 steps, check yes
Step Temp Press CPU Pxx Pyy Pzz Pxy Pxz Pyz KinEng PotEng TotEng Volume Lx Ly Lz Atoms
1039            0  -0.94129401            0   -1.3664617  -0.16248388   -1.2949365 3.5541633e-12 1.507263e-12 2.7260991e-11            0   -1931.2926   -1931.2926    9559.0904    16.196149    24.294165    24.294213      575
Loop time of 0.119436 on 1 procs for 27 steps with 575 atoms

Minimization stats:
  Stopping criterion = force tolerance
  Energy initial, next-to-last, final =
  Force two-norm initial, final = 5.84823e-06 7.7313e-11
  Force max component initial, final = 1.45781e-06 8.19805e-12
  Final line search alpha, max atom move = 1 8.19805e-12
  Iterations, force evaluations = 27 54

# Obtain new stress tensor

variable tmp equal pxx
variable pxx1 equal -1.36640488168173
variable tmp equal pyy
variable pyy1 equal -0.162435498528017
variable tmp equal pzz
variable pzz1 equal -1.2969589755756
variable tmp equal pxy
variable pxy1 equal -1.02345017772565e-12
variable tmp equal pxz
variable pxz1 equal -7.33162490952559e-12
variable tmp equal pyz
variable pyz1 equal 3.91934897606301e-12

# Compute elastic constant from pressure tensor

variable C1neg equal 51.581728618894
variable C2neg equal 55.9868229667565
variable C3neg equal 113.103733384217
variable C4neg equal 2.24661511084394e-07
variable C5neg equal -2.99321662025857e-07
variable C6neg equal -5.93600611824793e-10

# Reset box and simulation parameters

clear
box tilt large
read_restart restart.equil
  triclinic box = (0.00192551 0.0029176 0.00288106) to (16.1981 24.2971 24.2971) with tilt (0 0 0)
  575 atoms
include potential.mod
pair_style eam/alloy
pair_coeff * * /users/knc6/Software/jarvis/jarvis/lammps/examples/Al03.eam.alloy  Al
neighbor 1.0 nsq
neigh_modify once no every 1 delay 0 check yes
min_style  cg
min_modify           dmax 0.01 line quadratic
thermo          1
thermo_style custom step temp press cpu pxx pyy pzz pxy pxz pyz ke pe etotal vol lx ly lz atoms
thermo_modify norm no

# Positive deformation

variable delta equal 1e-06*24.2942376836039
change_box all z delta 0 2.42942376836039e-05 remap units box
  triclinic box = (0.00192551 0.0029176 0.00288106) to (16.1981 24.2971 24.2971) with tilt (0 0 0)

# Relax atoms positions

minimize 0 1e-10 1000 10000
  1 neighbor list requests
  update every 1 steps, delay 0 steps, check yes
Step Temp Press CPU Pxx Pyy Pzz Pxy Pxz Pyz KinEng PotEng TotEng Volume Lx Ly Lz Atoms
1039            0   -2.5237653            0   -2.5709015   -1.3669213   -3.6334732 1.7863822e-12 1.084855e-11 -7.8921807e-12            0   -1931.2926   -1931.2926    9559.1096    16.196149    24.294165    24.294262      575
Loop time of 0.119557 on 1 procs for 27 steps with 575 atoms

Minimization stats:
  Stopping criterion = force tolerance
  Energy initial, next-to-last, final =
  Force two-norm initial, final = 5.84824e-06 7.73108e-11
  Force max component initial, final = 1.45782e-06 8.18471e-12
  Final line search alpha, max atom move = 1 8.18471e-12
  Iterations, force evaluations = 27 54

# Obtain new stress tensor

variable tmp equal pe
variable e1 equal -1931.29258351299
variable tmp equal press
variable p1 equal -2.52312622331645
variable tmp equal pxx
variable pxx1 equal -2.57095832258876
variable tmp equal pyy
variable pyy1 equal -1.36696966804196
variable tmp equal pzz
variable pzz1 equal -3.63145067931862
variable tmp equal pxy
variable pxy1 equal 2.53070810531853e-12
variable tmp equal pxz
variable pxz1 equal 5.39636287163509e-12
variable tmp equal pyz
variable pyz1 equal -2.051548298613e-12

# Compute elastic constant from pressure tensor

variable C1pos equal 68.873615471809
variable C2pos equal 64.4665939846378
variable C3pos equal 120.345436990085
variable C4pos equal -2.24064421356927e-07
variable C5pos equal 2.98048863247741e-07
variable C6pos equal 2.38184783520375e-10

# Combine positive and negative

variable C13 equal 0.5*(51.581728618894+68.873615471809)
variable C23 equal 0.5*(55.9868229667565+64.4665939846378)
variable C33 equal 0.5*(113.103733384217+120.345436990085)
variable C43 equal 0.5*(2.24661511084394e-07+-2.24064421356927e-07)
variable C53 equal 0.5*(-2.99321662025857e-07+2.98048863247741e-07)
variable C63 equal 0.5*(-5.93600611824793e-10+2.38184783520375e-10)

# Delete dir to make sure it is not reused

variable dir delete

# uyz Perturbation

variable dir equal 4
include /users/knc6/displace.mod
# NOTE: This script should not need to be
# modified. See in.elastic for more info.
#
# Find which reference length to use

variable len0 equal 24.2942376836039

# Reset box and simulation parameters

clear
box tilt large
read_restart restart.equil
  triclinic box = (0.00192551 0.0029176 0.00288106) to (16.1981 24.2971 24.2971) with tilt (0 0 0)
  575 atoms
include potential.mod
pair_style eam/alloy
pair_coeff * * /users/knc6/Software/jarvis/jarvis/lammps/examples/Al03.eam.alloy  Al
neighbor 1.0 nsq
neigh_modify once no every 1 delay 0 check yes
min_style  cg
min_modify           dmax 0.01 line quadratic
thermo          1
thermo_style custom step temp press cpu pxx pyy pzz pxy pxz pyz ke pe etotal vol lx ly lz atoms
thermo_modify norm no
# Negative deformation

variable delta equal -1e-06*24.2942376836039
change_box all yz delta -2.42942376836039e-05 remap units box
  triclinic box = (0.00192551 0.0029176 0.00288106) to (16.1981 24.2971 24.2971) with tilt (0 0 -2.42942e-05)

# Relax atoms positions

minimize 0 1e-10 1000 10000
  1 neighbor list requests
  update every 1 steps, delay 0 steps, check yes
Step Temp Press CPU Pxx Pyy Pzz Pxy Pxz Pyz KinEng PotEng TotEng Volume Lx Ly Lz Atoms
1039            0   -1.7325317            0   -1.9686833  -0.76470347   -2.4642084 -7.2757931e-12 -4.4659599e-13   0.31655892            0   -1931.2926   -1931.2926       9559.1    16.196149    24.294165    24.294238      575
Loop time of 0.111614 on 1 procs for 25 steps with 575 atoms

Minimization stats:
  Stopping criterion = force tolerance
  Energy initial, next-to-last, final =
  Force two-norm initial, final = 4.31792e-06 9.52558e-11
  Force max component initial, final = 1.45768e-06 8.72138e-12
  Final line search alpha, max atom move = 1 8.72138e-12
  Iterations, force evaluations = 25 50

# Obtain new stress tensor

variable tmp equal pxx
variable pxx1 equal -1.96868327324088
variable tmp equal pyy
variable pyy1 equal -0.764703467478678
variable tmp equal pzz
variable pzz1 equal -2.46420836265803
variable tmp equal pxy
variable pxy1 equal -1.13509815292371e-11
variable tmp equal pxz
variable pxz1 equal 8.57836472947262e-12
variable tmp equal pyz
variable pyz1 equal 0.315434812582651

# Compute elastic constant from pressure tensor

variable C1neg equal -8.646110537021
variable C2neg equal -4.2399739283096
variable C3neg equal -3.62120532402601
variable C4neg equal 31.5434814825347
variable C5neg equal -2.97730663061957e-07
variable C6neg equal -1.62635374697594e-09

# Reset box and simulation parameters

clear
box tilt large
read_restart restart.equil
  triclinic box = (0.00192551 0.0029176 0.00288106) to (16.1981 24.2971 24.2971) with tilt (0 0 0)
  575 atoms
include potential.mod
pair_style eam/alloy
pair_coeff * * /users/knc6/Software/jarvis/jarvis/lammps/examples/Al03.eam.alloy  Al
neighbor 1.0 nsq
neigh_modify once no every 1 delay 0 check yes
min_style  cg
min_modify           dmax 0.01 line quadratic
thermo          1
thermo_style custom step temp press cpu pxx pyy pzz pxy pxz pyz ke pe etotal vol lx ly lz atoms
thermo_modify norm no

# Positive deformation

variable delta equal 1e-06*24.2942376836039
change_box all yz delta 2.42942376836039e-05 remap units box
  triclinic box = (0.00192551 0.0029176 0.00288106) to (16.1981 24.2971 24.2971) with tilt (0 0 2.42942e-05)

# Relax atoms positions

minimize 0 1e-10 1000 10000
  1 neighbor list requests
  update every 1 steps, delay 0 steps, check yes
Step Temp Press CPU Pxx Pyy Pzz Pxy Pxz Pyz KinEng PotEng TotEng Volume Lx Ly Lz Atoms
1039            0   -1.7325317            0   -1.9686833  -0.76470347   -2.4642084 1.8608166e-14 1.2206957e-11  -0.31655892            0   -1931.2926   -1931.2926       9559.1    16.196149    24.294165    24.294238      575
Loop time of 0.111646 on 1 procs for 25 steps with 575 atoms

Minimization stats:
  Stopping criterion = force tolerance
  Energy initial, next-to-last, final =
  Force two-norm initial, final = 4.31792e-06 9.52737e-11
  Force max component initial, final = 1.45768e-06 8.7245e-12
  Final line search alpha, max atom move = 1 8.7245e-12
  Iterations, force evaluations = 25 50

# Obtain new stress tensor

variable tmp equal pe
variable e1 equal -1931.29258353021
variable tmp equal press
variable p1 equal -1.73253170115032
variable tmp equal pxx
variable pxx1 equal -1.96868327325754
variable tmp equal pyy
variable pyy1 equal -0.764703467504711
variable tmp equal pzz
variable pzz1 equal -2.4642083626887
variable tmp equal pxy
variable pxy1 equal -6.62450725312853e-12
variable tmp equal pxz
variable pxz1 equal -3.90771495268818e-13
variable tmp equal pyz
variable pyz1 equal -0.315434812592078

# Compute elastic constant from pressure tensor

variable C1pos equal 8.64611053868698
variable C2pos equal 4.2399739309129
variable C3pos equal 3.62120532709303
variable C4pos equal 31.5434810349382
variable C5pos equal 2.98627576684431e-07
variable C6pos equal 1.15370631936508e-09

# Combine positive and negative

variable C14 equal 0.5*(-8.646110537021+8.64611053868698)
variable C24 equal 0.5*(-4.2399739283096+4.2399739309129)
variable C34 equal 0.5*(-3.62120532402601+3.62120532709303)
variable C44 equal 0.5*(31.5434814825347+31.5434810349382)
variable C54 equal 0.5*(-2.97730663061957e-07+2.98627576684431e-07)
variable C64 equal 0.5*(-1.62635374697594e-09+1.15370631936508e-09)

# Delete dir to make sure it is not reused

variable dir delete

# uxz Perturbation

variable dir equal 5
include /users/knc6/displace.mod
# NOTE: This script should not need to be
# modified. See in.elastic for more info.
#
# Find which reference length to use

variable len0 equal 24.2942376836039

# Reset box and simulation parameters

clear
box tilt large
read_restart restart.equil
  triclinic box = (0.00192551 0.0029176 0.00288106) to (16.1981 24.2971 24.2971) with tilt (0 0 0)
  575 atoms
include potential.mod
pair_style eam/alloy
pair_coeff * * /users/knc6/Software/jarvis/jarvis/lammps/examples/Al03.eam.alloy  Al
neighbor 1.0 nsq
neigh_modify once no every 1 delay 0 check yes
min_style  cg
min_modify           dmax 0.01 line quadratic
thermo          1
thermo_style custom step temp press cpu pxx pyy pzz pxy pxz pyz ke pe etotal vol lx ly lz atoms
thermo_modify norm no
# Negative deformation

variable delta equal -1e-06*24.2942376836039
change_box all xz delta -2.42942376836039e-05 remap units box
  triclinic box = (0.00192551 0.0029176 0.00288106) to (16.1981 24.2971 24.2971) with tilt (0 -2.42942e-05 0)

# Relax atoms positions

minimize 0 1e-10 1000 10000
  1 neighbor list requests
  update every 1 steps, delay 0 steps, check yes
Step Temp Press CPU Pxx Pyy Pzz Pxy Pxz Pyz KinEng PotEng TotEng Volume Lx Ly Lz Atoms
1039            0   -1.7325317            0   -1.9686825  -0.76470424   -2.4642083 7.5549156e-12   0.31656101 -3.5681159e-12            0   -1931.2926   -1931.2926       9559.1    16.196149    24.294165    24.294238      575
Loop time of 0.127822 on 1 procs for 29 steps with 575 atoms

Minimization stats:
  Stopping criterion = force tolerance
  Energy initial, next-to-last, final =
  Force two-norm initial, final = 4.31464e-06 9.5945e-11
  Force max component initial, final = 1.4571e-06 9.35994e-12
  Final line search alpha, max atom move = 1 9.35994e-12
  Iterations, force evaluations = 29 58

# Obtain new stress tensor

variable tmp equal pxx
variable pxx1 equal -1.96868246993849
variable tmp equal pyy
variable pyy1 equal -0.764704225504444
variable tmp equal pzz
variable pzz1 equal -2.464208332153
variable tmp equal pxy
variable pxy1 equal -8.87609539253458e-12
variable tmp equal pxz
variable pxz1 equal 0.315437106548191
variable tmp equal pyz
variable pyz1 equal -6.26630004913212e-12

# Compute elastic constant from pressure tensor

variable C1neg equal -8.64603020678198
variable C2neg equal -4.2400497308862
variable C3neg equal -3.62120227352301
variable C4neg equal 2.23642946181875e-07
variable C5neg equal 31.5437103562306
variable C6neg equal -1.37886513330569e-09

# Reset box and simulation parameters

clear
box tilt large
read_restart restart.equil
  triclinic box = (0.00192551 0.0029176 0.00288106) to (16.1981 24.2971 24.2971) with tilt (0 0 0)
  575 atoms
include potential.mod
pair_style eam/alloy
pair_coeff * * /users/knc6/Software/jarvis/jarvis/lammps/examples/Al03.eam.alloy  Al
neighbor 1.0 nsq
neigh_modify once no every 1 delay 0 check yes
min_style  cg
min_modify           dmax 0.01 line quadratic
thermo          1
thermo_style custom step temp press cpu pxx pyy pzz pxy pxz pyz ke pe etotal vol lx ly lz atoms
thermo_modify norm no

# Positive deformation

variable delta equal 1e-06*24.2942376836039
change_box all xz delta 2.42942376836039e-05 remap units box
  triclinic box = (0.00192551 0.0029176 0.00288106) to (16.1981 24.2971 24.2971) with tilt (0 2.42942e-05 0)

# Relax atoms positions

minimize 0 1e-10 1000 10000
  1 neighbor list requests
  update every 1 steps, delay 0 steps, check yes
Step Temp Press CPU Pxx Pyy Pzz Pxy Pxz Pyz KinEng PotEng TotEng Volume Lx Ly Lz Atoms
1039            0   -1.7325317            0   -1.9686825  -0.76470424   -2.4642083 -2.679576e-12  -0.31656101 2.4299939e-11            0   -1931.2926   -1931.2926       9559.1    16.196149    24.294165    24.294238      575
Loop time of 0.128432 on 1 procs for 29 steps with 575 atoms

Minimization stats:
  Stopping criterion = force tolerance
  Energy initial, next-to-last, final =
  Force two-norm initial, final = 4.31464e-06 9.59441e-11
  Force max component initial, final = 1.4571e-06 9.36174e-12
  Final line search alpha, max atom move = 1 9.36174e-12
  Iterations, force evaluations = 29 58

# Obtain new stress tensor

variable tmp equal pe
variable e1 equal -1931.29258353025
variable tmp equal press
variable p1 equal -1.73253167585958
variable tmp equal pxx
variable pxx1 equal -1.96868246993782
variable tmp equal pyy
variable pyy1 equal -0.764704225480745
variable tmp equal pzz
variable pzz1 equal -2.46420833216017
variable tmp equal pxy
variable pxy1 equal 3.7588496211572e-12
variable tmp equal pxz
variable pxz1 equal -0.315437106540562
variable tmp equal pyz
variable pyz1 equal -6.85013127123017e-12

# Compute elastic constant from pressure tensor

variable C1pos equal 8.646030206715
variable C2pos equal 4.24004972851631
variable C3pos equal 3.62120227424003
variable C4pos equal -2.23584563059665e-07
variable C5pos equal 31.5437109526447
variable C6pos equal 1.15370631936508e-10

# Combine positive and negative

variable C15 equal 0.5*(-8.64603020678198+8.646030206715)
variable C25 equal 0.5*(-4.2400497308862+4.24004972851631)
variable C35 equal 0.5*(-3.62120227352301+3.62120227424003)
variable C45 equal 0.5*(2.23642946181875e-07+-2.23584563059665e-07)
variable C55 equal 0.5*(31.5437103562306+31.5437109526447)
variable C65 equal 0.5*(-1.37886513330569e-09+1.15370631936508e-10)

# Delete dir to make sure it is not reused

variable dir delete

# uxy Perturbation

variable dir equal 6
include /users/knc6/displace.mod
# NOTE: This script should not need to be
# modified. See in.elastic for more info.
#
# Find which reference length to use

variable len0 equal 24.2941646056077

# Reset box and simulation parameters

clear
box tilt large
read_restart restart.equil
  triclinic box = (0.00192551 0.0029176 0.00288106) to (16.1981 24.2971 24.2971) with tilt (0 0 0)
  575 atoms
include potential.mod
pair_style eam/alloy
pair_coeff * * /users/knc6/Software/jarvis/jarvis/lammps/examples/Al03.eam.alloy  Al
neighbor 1.0 nsq
neigh_modify once no every 1 delay 0 check yes
min_style  cg
min_modify           dmax 0.01 line quadratic
thermo          1
thermo_style custom step temp press cpu pxx pyy pzz pxy pxz pyz ke pe etotal vol lx ly lz atoms
thermo_modify norm no
# Negative deformation

variable delta equal -1e-06*24.2941646056077
change_box all xy delta -2.42941646056077e-05 remap units box
  triclinic box = (0.00192551 0.0029176 0.00288106) to (16.1981 24.2971 24.2971) with tilt (-2.42942e-05 0 0)

# Relax atoms positions

minimize 0 1e-10 1000 10000
  1 neighbor list requests
  update every 1 steps, delay 0 steps, check yes
Step Temp Press CPU Pxx Pyy Pzz Pxy Pxz Pyz KinEng PotEng TotEng Volume Lx Ly Lz Atoms
1039            0   -1.7325317            0   -1.9686825  -0.76470309   -2.4642095   0.31656607 5.0614213e-12 1.7193946e-11            0   -1931.2926   -1931.2926       9559.1    16.196149    24.294165    24.294238      575
Loop time of 0.127368 on 1 procs for 29 steps with 575 atoms

Minimization stats:
  Stopping criterion = force tolerance
  Energy initial, next-to-last, final =
  Force two-norm initial, final = 4.31467e-06 9.59566e-11
  Force max component initial, final = 1.45712e-06 9.63426e-12
  Final line search alpha, max atom move = 1 9.63426e-12
  Iterations, force evaluations = 29 58

# Obtain new stress tensor

variable tmp equal pxx
variable pxx1 equal -1.96868246886897
variable tmp equal pyy
variable pyy1 equal -0.76470308907928
variable tmp equal pzz
variable pzz1 equal -2.46420946811412
variable tmp equal pxy
variable pxy1 equal 0.315442126611938
variable tmp equal pxz
variable pxz1 equal -8.61558106235537e-12
variable tmp equal pyz
variable pyz1 equal 1.48446647786047e-11

# Compute elastic constant from pressure tensor

variable C1neg equal -8.64603009982998
variable C2neg equal -4.2399360883698
variable C3neg equal -3.62131586963499
variable C4neg equal 2.25754042664648e-07
variable C5neg equal -2.9945005764114e-07
variable C6neg equal 31.5442126607025

# Reset box and simulation parameters

clear
box tilt large
read_restart restart.equil
  triclinic box = (0.00192551 0.0029176 0.00288106) to (16.1981 24.2971 24.2971) with tilt (0 0 0)
  575 atoms
include potential.mod
pair_style eam/alloy
pair_coeff * * /users/knc6/Software/jarvis/jarvis/lammps/examples/Al03.eam.alloy  Al
neighbor 1.0 nsq
neigh_modify once no every 1 delay 0 check yes
min_style  cg
min_modify           dmax 0.01 line quadratic
thermo          1
thermo_style custom step temp press cpu pxx pyy pzz pxy pxz pyz ke pe etotal vol lx ly lz atoms
thermo_modify norm no

# Positive deformation

variable delta equal 1e-06*24.2941646056077
change_box all xy delta 2.42941646056077e-05 remap units box
  triclinic box = (0.00192551 0.0029176 0.00288106) to (16.1981 24.2971 24.2971) with tilt (2.42942e-05 0 0)

# Relax atoms positions

minimize 0 1e-10 1000 10000
  1 neighbor list requests
  update every 1 steps, delay 0 steps, check yes
Step Temp Press CPU Pxx Pyy Pzz Pxy Pxz Pyz KinEng PotEng TotEng Volume Lx Ly Lz Atoms
1039            0   -1.7325317            0   -1.9686825  -0.76470309   -2.4642095  -0.31656607 2.059924e-11 -2.0887667e-12            0   -1931.2926   -1931.2926       9559.1    16.196149    24.294165    24.294238      575
Loop time of 0.12757 on 1 procs for 29 steps with 575 atoms

Minimization stats:
  Stopping criterion = force tolerance
  Energy initial, next-to-last, final =
  Force two-norm initial, final = 4.31467e-06 9.59545e-11
  Force max component initial, final = 1.45712e-06 9.63724e-12
  Final line search alpha, max atom move = 1 9.63724e-12
  Iterations, force evaluations = 29 58

# Obtain new stress tensor

variable tmp equal pe
variable e1 equal -1931.29258353023
variable tmp equal press
variable p1 equal -1.73253167534599
variable tmp equal pxx
variable pxx1 equal -1.96868246884539
variable tmp equal pyy
variable pyy1 equal -0.764703089087866
variable tmp equal pzz
variable pzz1 equal -2.4642094681047
variable tmp equal pxy
variable pxy1 equal -0.315442126626099
variable tmp equal pxz
variable pxz1 equal -1.14998468607681e-11
variable tmp equal pyz
variable pyz1 equal 8.07827025636074e-12

# Compute elastic constant from pressure tensor

variable C1pos equal 8.646030097472
variable C2pos equal 4.2399360892284
variable C3pos equal 3.62131586869303
variable C4pos equal -2.25077403212424e-07
variable C5pos equal 2.99738484220981e-07
variable C6pos equal 31.5442126631012

# Combine positive and negative

variable C16 equal 0.5*(-8.64603009982998+8.646030097472)
variable C26 equal 0.5*(-4.2399360883698+4.2399360892284)
variable C36 equal 0.5*(-3.62131586963499+3.62131586869303)
variable C46 equal 0.5*(2.25754042664648e-07+-2.25077403212424e-07)
variable C56 equal 0.5*(-2.9945005764114e-07+2.99738484220981e-07)
variable C66 equal 0.5*(31.5442126607025+31.5442126631012)

# Delete dir to make sure it is not reused

variable dir delete

# Output final values

variable C11all equal 116.727096211811
variable C22all equal 116.72607548246
variable C33all equal 116.724585187151

variable C12all equal 0.5*(60.228323818476+60.2284437452542)
variable C13all equal 0.5*(60.2276720453515+60.227622532911)
variable C23all equal 0.5*(60.2267084756972+60.2265390752745)

variable C44all equal 31.5434812587364
variable C55all equal 31.5437106544377
variable C66all equal 31.5442126619018

variable C14all equal 0.5*(8.32989677235219e-10+8.3573846817001e-10)
variable C15all equal 0.5*(-3.34896554932129e-11+5.57315080827511e-10)
variable C16all equal 0.5*(-1.17899023877044e-09+5.28471770626904e-10)

variable C24all equal 0.5*(1.30164989897708e-09+-8.35737628476008e-10)
variable C25all equal 0.5*(-1.18494503098532e-09+-2.33533634172007e-10)
variable C26all equal 0.5*(4.29300150983636e-10+-2.41906828049623e-10)

variable C34all equal 0.5*(1.53350998566282e-09+2.98544863733494e-10)
variable C35all equal 0.5*(3.58510110487487e-10+-6.36399389058007e-10)
variable C36all equal 0.5*(-4.70979921729509e-10+-1.77707914152209e-10)

variable C45all equal 0.5*(2.91915611049961e-11+4.48456811237009e-10)
variable C46all equal 0.5*(3.38319726111998e-10+-2.3632371380543e-10)
variable C56all equal 0.5*(1.44213289920514e-10+-6.31747250684591e-10)

# For Stillinger-Weber silicon, the analytical results
# are known to be (E. R. Cowley, 1988):
#               C11 = 151.4 GPa
#               C12 = 76.4 GPa
#               C44 = 56.4 GPa

Elastic Constant C11all = 116.727096211811 GPa
Elastic Constant C22all = 116.72607548246 GPa
Elastic Constant C33all = 116.724585187151 GPa

Elastic Constant C12all = 60.2283837818651 GPa
Elastic Constant C13all = 60.2276472891312 GPa
Elastic Constant C23all = 60.2266237754858 GPa

Elastic Constant C44all = 31.5434812587364 GPa
Elastic Constant C55all = 31.5437106544377 GPa
Elastic Constant C66all = 31.5442126619018 GPa

Elastic Constant C14all = 8.34364072702614e-10 GPa
Elastic Constant C15all = 2.61912712667149e-10 GPa
Elastic Constant C16all = -3.25259234071768e-10 GPa

Elastic Constant C24all = 2.32956135250536e-10 GPa
Elastic Constant C25all = -7.09239332578664e-10 GPa
Elastic Constant C26all = 9.36966614670065e-11 GPa

Elastic Constant C34all = 9.16027424698157e-10 GPa
Elastic Constant C35all = -1.3894463928526e-10 GPa
Elastic Constant C36all = -3.24343917940859e-10 GPa

Elastic Constant C45all = 2.38824186171003e-10 GPa
Elastic Constant C46all = 5.0998006153284e-11 GPa
Elastic Constant C56all = -2.43766980382039e-10 GPa
